Version 4
SHEET 1 896 680
WIRE 0 -64 -192 -64
WIRE 336 -64 0 -64
WIRE -192 -32 -192 -64
WIRE 0 0 0 -64
WIRE 416 32 272 32
WIRE 544 32 480 32
WIRE -192 64 -192 32
WIRE -192 64 -352 64
WIRE -48 64 -192 64
WIRE 128 64 48 64
WIRE 272 64 272 32
WIRE -352 112 -352 64
WIRE -192 112 -192 64
WIRE 544 112 544 32
WIRE 128 128 128 64
WIRE 336 144 336 -64
WIRE 336 144 272 144
WIRE -352 336 -352 192
WIRE -192 336 -192 176
WIRE -192 336 -352 336
WIRE 128 336 128 208
WIRE 128 336 -192 336
WIRE 272 336 272 304
WIRE 272 336 128 336
WIRE 544 336 544 176
WIRE 544 336 272 336
WIRE -192 368 -192 336
FLAG -192 368 0
SYMBOL ind2 112 224 M180
WINDOW 0 36 80 Left 2
WINDOW 3 36 40 Left 2
SYMATTR InstName L1
SYMATTR Value 458µ
SYMATTR Type ind
SYMBOL ind2 288 160 R180
WINDOW 0 36 80 Left 2
WINDOW 3 36 40 Left 2
SYMATTR InstName L2
SYMATTR Value 1.13
SYMATTR Type ind
SYMBOL ind2 288 128 M0
SYMATTR InstName L3
SYMATTR Value 200n
SYMATTR Type ind
SYMBOL pnp 48 0 R90
WINDOW 3 80 75 Left 2
SYMATTR Value 2SB1260
SYMATTR InstName Q1
SYMBOL cap -208 -32 R0
SYMATTR InstName C1
SYMATTR Value 0.001µ
SYMBOL polcap -208 112 R0
WINDOW 3 24 56 Left 2
SYMATTR Value 470µ
SYMATTR InstName C2
SYMATTR Description Capacitor
SYMATTR Type cap
SYMATTR SpiceLine V=10 Irms=3.87298 Rser=0.015 Lser=0
SYMBOL res 256 208 R0
SYMATTR InstName R1
SYMATTR Value 10k
SYMBOL voltage -352 96 R0
WINDOW 123 0 0 Left 0
SYMATTR SpiceLine Rser=10m Cpar=10u
SYMATTR InstName V1
SYMATTR Value 6
SYMBOL diode 416 48 R270
WINDOW 0 32 32 VTop 2
WINDOW 3 0 32 VBottom 2
SYMATTR InstName D1
SYMATTR Value 1N914
SYMBOL polcap 528 112 R0
WINDOW 3 24 56 Left 2
SYMATTR Value 6.6µ
SYMATTR InstName C3
SYMATTR Description Capacitor
SYMATTR Type cap
TEXT -384 392 Left 2 !.tran 0.3 startup
TEXT 120 8 Left 2 !K1 L1 L2 L3 .99
