Version 4
SHEET 1 1284 680
WIRE 352 -16 -112 -16
WIRE 528 -16 352 -16
WIRE 640 -16 528 -16
WIRE 1152 -16 640 -16
WIRE 1152 0 1152 -16
WIRE 528 48 528 -16
WIRE 640 48 640 -16
WIRE -112 96 -112 -16
WIRE 1152 96 1152 80
WIRE 128 112 32 112
WIRE 352 112 352 -16
WIRE 352 112 320 112
WIRE 640 160 640 128
WIRE 720 160 640 160
WIRE 848 160 784 160
WIRE 1024 160 848 160
WIRE 1104 160 1024 160
WIRE 32 208 32 192
WIRE 128 208 32 208
WIRE 352 208 320 208
WIRE 432 208 352 208
WIRE 528 208 528 128
WIRE 528 208 496 208
WIRE 576 208 528 208
WIRE 1152 224 1152 160
WIRE 32 240 32 208
WIRE 352 288 352 208
WIRE 848 288 848 160
WIRE 1024 288 1024 160
WIRE -112 416 -112 176
WIRE 352 416 352 368
WIRE 640 416 640 256
WIRE 848 416 848 368
WIRE 1024 416 1024 352
WIRE 1152 416 1152 288
FLAG 352 416 0
FLAG 640 416 0
FLAG 848 416 0
FLAG 1024 416 0
FLAG -112 416 0
FLAG 32 240 0
FLAG 1152 416 0
SYMBOL Optos\\PC817A 224 160 R0
SYMATTR InstName U1
SYMBOL res 336 272 R0
SYMATTR InstName R1
SYMATTR Value 47k
SYMBOL cap 496 192 R90
WINDOW 0 0 32 VBottom 2
WINDOW 3 32 32 VTop 2
SYMATTR InstName C1
SYMATTR Value 22n
SYMBOL res 512 32 R0
SYMATTR InstName R2
SYMATTR Value 100k
SYMBOL res 624 32 R0
SYMATTR InstName R3
SYMATTR Value 47k
SYMBOL npn2 576 160 R0
SYMATTR InstName Q3
SYMATTR Value 2SC4081
SYMBOL cap 784 144 R90
WINDOW 0 0 32 VBottom 2
WINDOW 3 32 32 VTop 2
SYMATTR InstName C2
SYMATTR Value 2.2n
SYMBOL res 832 272 R0
SYMATTR InstName R4
SYMATTR Value 47k
SYMBOL diode 1040 352 R180
WINDOW 0 24 64 Left 2
WINDOW 3 24 0 Left 2
SYMATTR InstName D1
SYMATTR Value 1N914
SYMBOL voltage -112 80 R0
WINDOW 123 0 0 Left 0
WINDOW 39 0 0 Left 0
SYMATTR InstName V1
SYMATTR Value 8.2
SYMBOL voltage 32 96 R0
WINDOW 0 -41 14 Left 2
WINDOW 3 -91 185 Left 2
WINDOW 123 0 0 Left 0
WINDOW 39 0 0 Left 0
SYMATTR InstName V2
SYMATTR Value PULSE(8.2 0 200m 1m 1m 4m)
SYMBOL Misc\\SCR 1136 96 R0
SYMATTR InstName U2
SYMATTR Value MCR716
SYMBOL res 1136 -16 R0
SYMATTR InstName R5
SYMATTR Value 10k
SYMBOL LED 1136 224 R0
SYMATTR InstName D2
SYMATTR Value QTLP690C
TEXT -144 440 Left 2 !.tran 400m startup
TEXT -152 496 Left 2 !.lib MCR716.lib
